*keyword
*mat_piecewise_linear_plasticity
1, 7.850e-3, 2.E+5, 0.28
0,0,100


*define_curve
100
0,250
10,250
*end